CM NEC Input File based on example from libnec2++
CM111222221111111111222222222233333333334444444444555555555566666666667777777777
CM111222223333344444111111111122222222223333333333444444444455555555556666666666
CE
GW  0  70 -0.04800   0.02100  -0.00500   0.03500   0.04300   0.01400   0.00100
GW  0  66  0.01700  -0.01500   0.01400  -0.02700   0.04000  -0.03100   0.00100
GW  0  47  0.04600  -0.01000   0.02800  -0.01300  -0.00500   0.03100   0.00100
GW  0  77 -0.04800  -0.03800  -0.04000   0.04900  -0.04500  -0.04000   0.00100
GE  0
GN -1  0    0    0  0.00E+00  0.00E+00  0.00E+00  0.00E+00  0.00E+00  0.00E+00
LD  5  0    0    0  3.72E+07  0.00E+00  0.00E+00  
EX  1  1    1    00 0.00E+00  0.00E+00  0.00E+00  0.00E+00  0.00E+00  0.00E+00
FR  0  2            2400.000  100.0000
RP  0  72  72   05000.00E+00  0.00E+00  5.00E+00  5.00E+00  0.00E+00  0.00E+00
EN
