CM NEC Input File for monopole
CE
GW  1  8   0.00000   0.00000   0.00000   0.00000   0.00000  17.00000   0.00100
GE  1
GN  1  0    0    0  0.00E+00  0.00E+00  0.00E+00  0.00E+00  0.00E+00  0.00E+00
FR  0  1    0    0  1.81E+01  0.00E+00  0.00E+00  0.00E+00  0.00E+00  0.00E+00
EX  0  1    1    0  1.00E+00  0.00E+00  0.00E+00  0.00E+00  0.00E+00  0.00E+00
RP  0  180  360 0500-90.0000  0.00E+00  1.00E+00  1.00E+00  0.00E+00  0.00E+00
EN
